
*** ChampSim Multicore Out-of-Order Simulator ***

Warmup Instructions: 30000000
Simulation Instructions: 30000000
Number of CPUs: 1
LLC sets: 2048
LLC ways: 16
Off-chip DRAM Size: 4096 MB Channels: 1 Width: 64-bit Data Rate: 3200 MT/s

CPU 0 runs ../traces//mat_trace.trace.xz
CPU 0 Bimodal branch predictor
*** Reached end of trace for Core: 0 Repeating trace: ../traces//mat_trace.trace.xz
*** Reached end of trace for Core: 0 Repeating trace: ../traces//mat_trace.trace.xz
*** Reached end of trace for Core: 0 Repeating trace: ../traces//mat_trace.trace.xz
*** Reached end of trace for Core: 0 Repeating trace: ../traces//mat_trace.trace.xz
*** Reached end of trace for Core: 0 Repeating trace: ../traces//mat_trace.trace.xz
*** Reached end of trace for Core: 0 Repeating trace: ../traces//mat_trace.trace.xz
*** Reached end of trace for Core: 0 Repeating trace: ../traces//mat_trace.trace.xz
*** Reached end of trace for Core: 0 Repeating trace: ../traces//mat_trace.trace.xz
*** Reached end of trace for Core: 0 Repeating trace: ../traces//mat_trace.trace.xz
*** Reached end of trace for Core: 0 Repeating trace: ../traces//mat_trace.trace.xz
Heartbeat CPU 0 instructions: 10000001 cycles: 4182012 heartbeat IPC: 2.39119 cumulative IPC: 2.39119 (Simulation time: 0 hr 0 min 12 sec) 
*** Reached end of trace for Core: 0 Repeating trace: ../traces//mat_trace.trace.xz
*** Reached end of trace for Core: 0 Repeating trace: ../traces//mat_trace.trace.xz
*** Reached end of trace for Core: 0 Repeating trace: ../traces//mat_trace.trace.xz
*** Reached end of trace for Core: 0 Repeating trace: ../traces//mat_trace.trace.xz
*** Reached end of trace for Core: 0 Repeating trace: ../traces//mat_trace.trace.xz
*** Reached end of trace for Core: 0 Repeating trace: ../traces//mat_trace.trace.xz
*** Reached end of trace for Core: 0 Repeating trace: ../traces//mat_trace.trace.xz
*** Reached end of trace for Core: 0 Repeating trace: ../traces//mat_trace.trace.xz
*** Reached end of trace for Core: 0 Repeating trace: ../traces//mat_trace.trace.xz
*** Reached end of trace for Core: 0 Repeating trace: ../traces//mat_trace.trace.xz
Heartbeat CPU 0 instructions: 20000002 cycles: 8364173 heartbeat IPC: 2.39111 cumulative IPC: 2.39115 (Simulation time: 0 hr 0 min 24 sec) 
*** Reached end of trace for Core: 0 Repeating trace: ../traces//mat_trace.trace.xz
*** Reached end of trace for Core: 0 Repeating trace: ../traces//mat_trace.trace.xz
*** Reached end of trace for Core: 0 Repeating trace: ../traces//mat_trace.trace.xz
*** Reached end of trace for Core: 0 Repeating trace: ../traces//mat_trace.trace.xz
*** Reached end of trace for Core: 0 Repeating trace: ../traces//mat_trace.trace.xz
*** Reached end of trace for Core: 0 Repeating trace: ../traces//mat_trace.trace.xz
*** Reached end of trace for Core: 0 Repeating trace: ../traces//mat_trace.trace.xz
*** Reached end of trace for Core: 0 Repeating trace: ../traces//mat_trace.trace.xz
*** Reached end of trace for Core: 0 Repeating trace: ../traces//mat_trace.trace.xz
*** Reached end of trace for Core: 0 Repeating trace: ../traces//mat_trace.trace.xz
Heartbeat CPU 0 instructions: 30000000 cycles: 12546445 heartbeat IPC: 2.39104 cumulative IPC: 2.39112 (Simulation time: 0 hr 0 min 35 sec) 

Warmup complete CPU 0 instructions: 30000004 cycles: 12546446 (Simulation time: 0 hr 0 min 35 sec) 

*** Reached end of trace for Core: 0 Repeating trace: ../traces//mat_trace.trace.xz
*** Reached end of trace for Core: 0 Repeating trace: ../traces//mat_trace.trace.xz
*** Reached end of trace for Core: 0 Repeating trace: ../traces//mat_trace.trace.xz
*** Reached end of trace for Core: 0 Repeating trace: ../traces//mat_trace.trace.xz
*** Reached end of trace for Core: 0 Repeating trace: ../traces//mat_trace.trace.xz
*** Reached end of trace for Core: 0 Repeating trace: ../traces//mat_trace.trace.xz
*** Reached end of trace for Core: 0 Repeating trace: ../traces//mat_trace.trace.xz
*** Reached end of trace for Core: 0 Repeating trace: ../traces//mat_trace.trace.xz
*** Reached end of trace for Core: 0 Repeating trace: ../traces//mat_trace.trace.xz
*** Reached end of trace for Core: 0 Repeating trace: ../traces//mat_trace.trace.xz
Heartbeat CPU 0 instructions: 40000000 cycles: 21265745 heartbeat IPC: 1.14688 cumulative IPC: 1.14688 (Simulation time: 0 hr 0 min 45 sec) 
*** Reached end of trace for Core: 0 Repeating trace: ../traces//mat_trace.trace.xz
*** Reached end of trace for Core: 0 Repeating trace: ../traces//mat_trace.trace.xz
*** Reached end of trace for Core: 0 Repeating trace: ../traces//mat_trace.trace.xz
*** Reached end of trace for Core: 0 Repeating trace: ../traces//mat_trace.trace.xz
*** Reached end of trace for Core: 0 Repeating trace: ../traces//mat_trace.trace.xz
*** Reached end of trace for Core: 0 Repeating trace: ../traces//mat_trace.trace.xz
*** Reached end of trace for Core: 0 Repeating trace: ../traces//mat_trace.trace.xz
*** Reached end of trace for Core: 0 Repeating trace: ../traces//mat_trace.trace.xz
*** Reached end of trace for Core: 0 Repeating trace: ../traces//mat_trace.trace.xz
*** Reached end of trace for Core: 0 Repeating trace: ../traces//mat_trace.trace.xz
Heartbeat CPU 0 instructions: 50000000 cycles: 29985504 heartbeat IPC: 1.14682 cumulative IPC: 1.14685 (Simulation time: 0 hr 0 min 54 sec) 
*** Reached end of trace for Core: 0 Repeating trace: ../traces//mat_trace.trace.xz
*** Reached end of trace for Core: 0 Repeating trace: ../traces//mat_trace.trace.xz
*** Reached end of trace for Core: 0 Repeating trace: ../traces//mat_trace.trace.xz
*** Reached end of trace for Core: 0 Repeating trace: ../traces//mat_trace.trace.xz
*** Reached end of trace for Core: 0 Repeating trace: ../traces//mat_trace.trace.xz
*** Reached end of trace for Core: 0 Repeating trace: ../traces//mat_trace.trace.xz
*** Reached end of trace for Core: 0 Repeating trace: ../traces//mat_trace.trace.xz
*** Reached end of trace for Core: 0 Repeating trace: ../traces//mat_trace.trace.xz
*** Reached end of trace for Core: 0 Repeating trace: ../traces//mat_trace.trace.xz
*** Reached end of trace for Core: 0 Repeating trace: ../traces//mat_trace.trace.xz
Heartbeat CPU 0 instructions: 60000000 cycles: 38704905 heartbeat IPC: 1.14687 cumulative IPC: 1.14686 (Simulation time: 0 hr 1 min 3 sec) 
Finished CPU 0 instructions: 30000000 cycles: 26158460 cumulative IPC: 1.14686 (Simulation time: 0 hr 1 min 3 sec) 

ChampSim completed all CPUs

Region of Interest Statistics

CPU 0 cumulative IPC: 1.14686 instructions: 30000000 cycles: 26158460
L1D TOTAL     ACCESS:    7333283  HIT:    7121812  MISS:     211471
L1D LOAD      ACCESS:    4585955  HIT:    4421740  MISS:     164215
L1D RFO       ACCESS:    2747328  HIT:    2700072  MISS:      47256
L1D PREFETCH  ACCESS:          0  HIT:          0  MISS:          0
L1D WRITEBACK ACCESS:          0  HIT:          0  MISS:          0
L1D PREFETCH  REQUESTED:          0  ISSUED:          0  USEFUL:          0  USELESS:          0
L1D AVERAGE MISS LATENCY: 18.0055 cycles
L1I TOTAL     ACCESS:    5146332  HIT:    5121864  MISS:      24468
L1I LOAD      ACCESS:    5146332  HIT:    5121864  MISS:      24468
L1I RFO       ACCESS:          0  HIT:          0  MISS:          0
L1I PREFETCH  ACCESS:          0  HIT:          0  MISS:          0
L1I WRITEBACK ACCESS:          0  HIT:          0  MISS:          0
L1I PREFETCH  REQUESTED:          0  ISSUED:          0  USEFUL:          0  USELESS:          0
L1I AVERAGE MISS LATENCY: 19.557 cycles
L2C TOTAL     ACCESS:     287328  HIT:     261828  MISS:      25500
L2C LOAD      ACCESS:     188683  HIT:     166303  MISS:      22380
L2C RFO       ACCESS:      47255  HIT:      44255  MISS:       3000
L2C PREFETCH  ACCESS:          0  HIT:          0  MISS:          0
L2C WRITEBACK ACCESS:      51390  HIT:      51270  MISS:        120
L2C PREFETCH  REQUESTED:          0  ISSUED:          0  USEFUL:          0  USELESS:          0
L2C AVERAGE MISS LATENCY: 29.8588 cycles
LLC TOTAL     ACCESS:      28800  HIT:      28800  MISS:          0
LLC LOAD      ACCESS:      22380  HIT:      22380  MISS:          0
LLC RFO       ACCESS:       3000  HIT:       3000  MISS:          0
LLC PREFETCH  ACCESS:          0  HIT:          0  MISS:          0
LLC WRITEBACK ACCESS:       3420  HIT:       3420  MISS:          0
LLC PREFETCH  REQUESTED:          0  ISSUED:          0  USEFUL:          0  USELESS:          0
LLC AVERAGE MISS LATENCY: -nan cycles
Major fault: 0 Minor fault: 242

DRAM Statistics
 CHANNEL 0
 RQ ROW_BUFFER_HIT:          0  ROW_BUFFER_MISS:          0
 DBUS_CONGESTED:          0
 WQ ROW_BUFFER_HIT:          0  ROW_BUFFER_MISS:          0  FULL:          0

 AVG_CONGESTED_CYCLE: -

CPU 0 Branch Prediction Accuracy: 96.3888% MPKI: 5.79573 Average ROB Occupancy at Mispredict: 53.6218

Branch types
NOT_BRANCH: 25184802 83.9493%
BRANCH_DIRECT_JUMP: 214648 0.715493%
BRANCH_INDIRECT: 67170 0.2239%
BRANCH_CONDITIONAL: 4221706 14.0724%
BRANCH_DIRECT_CALL: 153570 0.5119%
BRANCH_INDIRECT_CALL: 2160 0.0072%
BRANCH_RETURN: 155610 0.5187%
BRANCH_OTHER: 0 0%

