
*** ChampSim Multicore Out-of-Order Simulator ***

Warmup Instructions: 30000000
Simulation Instructions: 30000000
Number of CPUs: 1
LLC sets: 2048
LLC ways: 16
Off-chip DRAM Size: 4096 MB Channels: 1 Width: 64-bit Data Rate: 3200 MT/s

CPU 0 runs ../traces//ipc1_public.tar.gz
CPU 0 Bimodal branch predictor
bimodal-no-no-no-no-lru-1core: src/main.cc:310: uint64_t va_to_pa(uint32_t, uint64_t, uint64_t, uint64_t, uint8_t): Assertion `0' failed.
